example_simulationRT/RTNordic_generator_input/Nordic.xiidm
<?xml version="1.0" encoding="UTF-8"?>
<!--
    Copyright (c) 2023, RTE (http://www.rte-france.com)
    See AUTHORS.txt
    All rights reserved.
    This Source Code Form is subject to the terms of the Mozilla Public
    License, v. 2.0. If a copy of the MPL was not distributed with this
    file, you can obtain one at http://mozilla.org/MPL/2.0/.
    SPDX-License-Identifier: MPL-2.0

    This file is part of Dynawo, an hybrid C++/Modelica open source suite of
    simulation tools for power systems.
-->
<iidm:network xmlns:iidm="http://www.powsybl.org/schema/iidm/1_4" id="Nordic32_corrige" caseDate="2019-07-30T16:39:00.000+02:00" forecastDistance="0" sourceFormat="NF">
    <iidm:substation id="_19fe9db0-63e5-4f87-a503-0867c0a01369" country="FR" tso="RTE">
        <iidm:voltageLevel id="1011_130" nominalV="130.0" highVoltageLimit="136.5" topologyKind="BUS_BREAKER">
            <iidm:busBreakerTopology>
                <iidm:bus id="1011_131" v="138.03089904785156" angle="57.58239474122357"/>
            </iidm:busBreakerTopology>
        </iidm:voltageLevel>
        <iidm:voltageLevel id="4011_400" nominalV="400.0" highVoltageLimit="420.0" topologyKind="BUS_BREAKER">
            <iidm:busBreakerTopology>
                <iidm:bus id="4011_401" v="408.9791259765625" angle="56.68360331815242"/>
            </iidm:busBreakerTopology>
        </iidm:voltageLevel>
        <iidm:voltageLevel id="B11___20" nominalV="20.0" highVoltageLimit="21.0" topologyKind="BUS_BREAKER">
            <iidm:busBreakerTopology>
                <iidm:bus id="B11___21" v="20.051298141479492" angle="54.78250895513858"/>
            </iidm:busBreakerTopology>
            <iidm:load id="11_1" loadType="UNDEFINED" p0="199.99400329589844" q0="68.7958984375" bus="B11___21" connectableBus="B11___21" p="199.99400329589844" q="68.7958984375"/>
        </iidm:voltageLevel>
        <iidm:voltageLevel id="BG09__15" nominalV="15.0" highVoltageLimit="15.750001907348633" topologyKind="BUS_BREAKER">
            <iidm:busBreakerTopology>
                <iidm:bus id="BG09__11" v="14.981922149658203" angle="62.60139532826736"/>
            </iidm:busBreakerTopology>
            <iidm:generator id="g09" energySource="HYDRO" minP="0.0" maxP="9999.0" voltageRegulatorOn="true" targetP="668.5" targetV="14.981999397277832" targetQ="201.2519989013672" bus="BG09__11" connectableBus="BG09__11" p="-668.5" q="-201.2519989013672">
                <iidm:property name="genreCvg" value="AUTRE"/>
                <iidm:reactiveCapabilityCurve>
                    <iidm:point p="0.0" minQ="-1000.0" maxQ="1000.0"/>
                    <iidm:point p="9999.0" minQ="-1000.0" maxQ="1000.0"/>
                </iidm:reactiveCapabilityCurve>
            </iidm:generator>
        </iidm:voltageLevel>
        <iidm:twoWindingsTransformer id="Tr1011-4011" r="0.0" x="1.3519998788833618" g="0.0" b="0.0" ratedU1="400.0" ratedU2="130.0" bus1="4011_401" connectableBus1="4011_401" voltageLevelId1="4011_400" bus2="1011_131" connectableBus2="1011_131" voltageLevelId2="1011_130" p1="-224.0680694580078" q1="196.62571716308594" p2="224.0680694580078" q2="-190.4880828857422">
            <iidm:ratioTapChanger lowTapPosition="0" tapPosition="0" loadTapChangingCapabilities="false">
                <iidm:step r="0.0" x="0.0" g="0.0" b="0.0" rho="1.0526316165924072"/>
                <iidm:step r="0.0" x="0.0" g="0.0" b="0.0" rho="1.0416667461395264"/>
                <iidm:step r="0.0" x="0.0" g="0.0" b="0.0" rho="1.0309277772903442"/>
                <iidm:step r="0.0" x="0.0" g="0.0" b="0.0" rho="1.0204081535339355"/>
                <iidm:step r="0.0" x="0.0" g="0.0" b="0.0" rho="1.0101009607315063"/>
                <iidm:step r="0.0" x="0.0" g="0.0" b="0.0" rho="1.0"/>
                <iidm:step r="0.0" x="0.0" g="0.0" b="0.0" rho="0.9900990128517151"/>
                <iidm:step r="0.0" x="0.0" g="0.0" b="0.0" rho="0.9803921580314636"/>
                <iidm:step r="0.0" x="0.0" g="0.0" b="0.0" rho="0.9708738327026367"/>
                <iidm:step r="0.0" x="0.0" g="0.0" b="0.0" rho="0.9615384936332703"/>
                <iidm:step r="0.0" x="0.0" g="0.0" b="0.0" rho="0.9523810148239136"/>
            </iidm:ratioTapChanger>
            <iidm:currentLimits1 permanentLimit="5551.43994140625"/>
            <iidm:currentLimits2 permanentLimit="5551.43994140625"/>
        </iidm:twoWindingsTransformer>
        <iidm:twoWindingsTransformer id="Tr11-1011" r="0.0" x="0.10000003129243851" g="0.0" b="0.0" ratedU1="130.0" ratedU2="20.0" bus1="1011_131" connectableBus1="1011_131" voltageLevelId1="1011_130" bus2="B11___21" connectableBus2="B11___21" voltageLevelId2="B11___20" p1="199.99400329589844" q1="79.92137145996094" p2="-199.99400329589844" q2="-68.7958984375">
            <iidm:ratioTapChanger lowTapPosition="0" tapPosition="24" targetDeadband="0.0" loadTapChangingCapabilities="true" regulating="true" targetV="20.0">
                <iidm:terminalRef id="Tr11-1011" side="TWO"/>
                <iidm:step r="0.0" x="0.0" g="0.0" b="0.0" rho="1.25"/>
                <iidm:step r="0.0" x="0.0" g="0.0" b="0.0" rho="1.2345678806304932"/>
                <iidm:step r="0.0" x="0.0" g="0.0" b="0.0" rho="1.2195122241973877"/>
                <iidm:step r="0.0" x="0.0" g="0.0" b="0.0" rho="1.2048193216323853"/>
                <iidm:step r="0.0" x="0.0" g="0.0" b="0.0" rho="1.1904761791229248"/>
                <iidm:step r="0.0" x="0.0" g="0.0" b="0.0" rho="1.1764705181121826"/>
                <iidm:step r="0.0" x="0.0" g="0.0" b="0.0" rho="1.1627906560897827"/>
                <iidm:step r="0.0" x="0.0" g="0.0" b="0.0" rho="1.1494252681732178"/>
                <iidm:step r="0.0" x="0.0" g="0.0" b="0.0" rho="1.1363636255264282"/>
                <iidm:step r="0.0" x="0.0" g="0.0" b="0.0" rho="1.1235954761505127"/>
                <iidm:step r="0.0" x="0.0" g="0.0" b="0.0" rho="1.1111111640930176"/>
                <iidm:step r="0.0" x="0.0" g="0.0" b="0.0" rho="1.0989010334014893"/>
                <iidm:step r="0.0" x="0.0" g="0.0" b="0.0" rho="1.08695650100708"/>
                <iidm:step r="0.0" x="0.0" g="0.0" b="0.0" rho="1.0752688646316528"/>
                <iidm:step r="0.0" x="0.0" g="0.0" b="0.0" rho="1.063829779624939"/>
                <iidm:step r="0.0" x="0.0" g="0.0" b="0.0" rho="1.0526316165924072"/>
                <iidm:step r="0.0" x="0.0" g="0.0" b="0.0" rho="1.0416667461395264"/>
                <iidm:step r="0.0" x="0.0" g="0.0" b="0.0" rho="1.0309277772903442"/>
                <iidm:step r="0.0" x="0.0" g="0.0" b="0.0" rho="1.0204081535339355"/>
                <iidm:step r="0.0" x="0.0" g="0.0" b="0.0" rho="1.0101009607315063"/>
                <iidm:step r="0.0" x="0.0" g="0.0" b="0.0" rho="1.0"/>
                <iidm:step r="0.0" x="0.0" g="0.0" b="0.0" rho="0.9900990128517151"/>
                <iidm:step r="0.0" x="0.0" g="0.0" b="0.0" rho="0.9803921580314636"/>
                <iidm:step r="0.0" x="0.0" g="0.0" b="0.0" rho="0.9708738327026367"/>
                <iidm:step r="0.0" x="0.0" g="0.0" b="0.0" rho="0.9615384936332703"/>
                <iidm:step r="0.0" x="0.0" g="0.0" b="0.0" rho="0.9523810148239136"/>
                <iidm:step r="0.0" x="0.0" g="0.0" b="0.0" rho="0.943396270275116"/>
                <iidm:step r="0.0" x="0.0" g="0.0" b="0.0" rho="0.9345793724060059"/>
                <iidm:step r="0.0" x="0.0" g="0.0" b="0.0" rho="0.9259259104728699"/>
                <iidm:step r="0.0" x="0.0" g="0.0" b="0.0" rho="0.9174311757087708"/>
                <iidm:step r="0.0" x="0.0" g="0.0" b="0.0" rho="0.9090908765792847"/>
                <iidm:step r="0.0" x="0.0" g="0.0" b="0.0" rho="0.9009009003639221"/>
                <iidm:step r="0.0" x="0.0" g="0.0" b="0.0" rho="0.8928571343421936"/>
            </iidm:ratioTapChanger>
            <iidm:currentLimits1 permanentLimit="11547.0"/>
            <iidm:currentLimits2 permanentLimit="11547.0"/>
        </iidm:twoWindingsTransformer>
        <iidm:twoWindingsTransformer id="Tr4011-g9" r="0.0" x="0.03375000134110451" g="0.0" b="0.0" ratedU1="400.0" ratedU2="15.0" bus1="4011_401" connectableBus1="4011_401" voltageLevelId1="4011_400" bus2="BG09__11" connectableBus2="BG09__11" voltageLevelId2="BG09__15" p1="-668.5" q1="-127.96627807617188" p2="668.5" q2="201.2519989013672">
            <iidm:ratioTapChanger lowTapPosition="0" tapPosition="10" loadTapChangingCapabilities="false">
                <iidm:step r="0.0" x="0.0" g="0.0" b="0.0" rho="1.0526316165924072"/>
                <iidm:step r="0.0" x="0.0" g="0.0" b="0.0" rho="1.0416667461395264"/>
                <iidm:step r="0.0" x="0.0" g="0.0" b="0.0" rho="1.0309277772903442"/>
                <iidm:step r="0.0" x="0.0" g="0.0" b="0.0" rho="1.0204081535339355"/>
                <iidm:step r="0.0" x="0.0" g="0.0" b="0.0" rho="1.0101009607315063"/>
                <iidm:step r="0.0" x="0.0" g="0.0" b="0.0" rho="1.0"/>
                <iidm:step r="0.0" x="0.0" g="0.0" b="0.0" rho="0.9900990128517151"/>
                <iidm:step r="0.0" x="0.0" g="0.0" b="0.0" rho="0.9803921580314636"/>
                <iidm:step r="0.0" x="0.0" g="0.0" b="0.0" rho="0.9708738327026367"/>
                <iidm:step r="0.0" x="0.0" g="0.0" b="0.0" rho="0.9615384936332703"/>
                <iidm:step r="0.0" x="0.0" g="0.0" b="0.0" rho="0.9523810148239136"/>
            </iidm:ratioTapChanger>
            <iidm:currentLimits1 permanentLimit="38490.0"/>
            <iidm:currentLimits2 permanentLimit="38490.0"/>
        </iidm:twoWindingsTransformer>
    </iidm:substation>
    <iidm:substation id="_2733fb31-de68-473c-bbb7-234a34f4d82f" country="FR" tso="RTE">
        <iidm:voltageLevel id="1012_130" nominalV="130.0" highVoltageLimit="136.5" topologyKind="BUS_BREAKER">
            <iidm:busBreakerTopology>
                <iidm:bus id="1012_131" v="138.24008178710938" angle="61.13215333590591"/>
            </iidm:busBreakerTopology>
        </iidm:voltageLevel>
        <iidm:voltageLevel id="4012_400" nominalV="400.0" highVoltageLimit="420.0" topologyKind="BUS_BREAKER">
            <iidm:busBreakerTopology>
                <iidm:bus id="4012_401" v="409.4194641113281" angle="58.69330451915863"/>
            </iidm:busBreakerTopology>
            <iidm:shunt id="4012-Ind" sectionCount="1" voltageRegulatorOn="false" bus="4012_401" connectableBus="4012_401" q="104.76519012451172">
                <iidm:property name="qMax" value="-100"/>
                <iidm:shuntLinearModel bPerSection="-6.249999860301614E-4" maximumSectionCount="1"/>
            </iidm:shunt>
        </iidm:voltageLevel>
        <iidm:voltageLevel id="B12___20" nominalV="20.0" highVoltageLimit="21.0" topologyKind="BUS_BREAKER">
            <iidm:busBreakerTopology>
                <iidm:bus id="B12___21" v="19.950098037719727" angle="58.29516596224942"/>
            </iidm:busBreakerTopology>
            <iidm:load id="12_1" loadType="UNDEFINED" p0="300.00201416015625" q0="83.80120086669922" bus="B12___21" connectableBus="B12___21" p="300.00201416015625" q="83.80120086669922"/>
        </iidm:voltageLevel>
        <iidm:voltageLevel id="BG01__15" nominalV="15.0" highVoltageLimit="15.750001907348633" topologyKind="BUS_BREAKER">
            <iidm:busBreakerTopology>
                <iidm:bus id="BG01__11" v="16.025962829589844" angle="66.81497317819408"/>
            </iidm:busBreakerTopology>
            <iidm:generator id="g01" energySource="HYDRO" minP="0.0" maxP="9999.0" voltageRegulatorOn="true" targetP="600.0" targetV="16.025999069213867" targetQ="58.34000015258789" bus="BG01__11" connectableBus="BG01__11" p="-600.0" q="-58.34000015258789">
                <iidm:property name="genreCvg" value="AUTRE"/>
                <iidm:reactiveCapabilityCurve>
                    <iidm:point p="0.0" minQ="-800.0" maxQ="800.0"/>
                    <iidm:point p="9999.0" minQ="-800.0" maxQ="800.0"/>
                </iidm:reactiveCapabilityCurve>
            </iidm:generator>
        </iidm:voltageLevel>
        <iidm:voltageLevel id="BG10__15" nominalV="15.0" highVoltageLimit="15.750001907348633" topologyKind="BUS_BREAKER">
            <iidm:busBreakerTopology>
                <iidm:bus id="BG10__11" v="15.235474586486816" angle="65.217549025679"/>
            </iidm:busBreakerTopology>
            <iidm:generator id="g10" energySource="HYDRO" minP="0.0" maxP="9999.0" voltageRegulatorOn="true" targetP="600.0" targetV="15.23550033569336" targetQ="255.7010040283203" bus="BG10__11" connectableBus="BG10__11" p="-600.0" q="-255.7010040283203">
                <iidm:property name="genreCvg" value="AUTRE"/>
                <iidm:reactiveCapabilityCurve>
                    <iidm:point p="0.0" minQ="-800.0" maxQ="800.0"/>
                    <iidm:point p="9999.0" minQ="-800.0" maxQ="800.0"/>
                </iidm:reactiveCapabilityCurve>
            </iidm:generator>
        </iidm:voltageLevel>
        <iidm:twoWindingsTransformer id="Tr1012-4012" r="0.0" x="1.3519998788833618" g="0.0" b="0.0" ratedU1="400.0" ratedU2="130.0" bus1="4012_401" connectableBus1="4012_401" voltageLevelId1="4012_400" bus2="1012_131" connectableBus2="1012_131" voltageLevelId2="1012_130" p1="-609.4193725585938" q1="201.98403930664062" p2="609.4193725585938" q2="-173.5775909423828">
            <iidm:ratioTapChanger lowTapPosition="0" tapPosition="0" loadTapChangingCapabilities="false">
                <iidm:step r="0.0" x="0.0" g="0.0" b="0.0" rho="1.0526316165924072"/>
                <iidm:step r="0.0" x="0.0" g="0.0" b="0.0" rho="1.0416667461395264"/>
                <iidm:step r="0.0" x="0.0" g="0.0" b="0.0" rho="1.0309277772903442"/>
                <iidm:step r="0.0" x="0.0" g="0.0" b="0.0" rho="1.0204081535339355"/>
                <iidm:step r="0.0" x="0.0" g="0.0" b="0.0" rho="1.0101009607315063"/>
                <iidm:step r="0.0" x="0.0" g="0.0" b="0.0" rho="1.0"/>
                <iidm:step r="0.0" x="0.0" g="0.0" b="0.0" rho="0.9900990128517151"/>
                <iidm:step r="0.0" x="0.0" g="0.0" b="0.0" rho="0.9803921580314636"/>
                <iidm:step r="0.0" x="0.0" g="0.0" b="0.0" rho="0.9708738327026367"/>
                <iidm:step r="0.0" x="0.0" g="0.0" b="0.0" rho="0.9615384936332703"/>
                <iidm:step r="0.0" x="0.0" g="0.0" b="0.0" rho="0.9523810148239136"/>
            </iidm:ratioTapChanger>
            <iidm:currentLimits1 permanentLimit="5551.43994140625"/>
            <iidm:currentLimits2 permanentLimit="5551.43994140625"/>
        </iidm:twoWindingsTransformer>
        <iidm:twoWindingsTransformer id="Tr1012-g1" r="0.0" x="0.04218750819563866" g="0.0" b="0.0" ratedU1="130.0" ratedU2="15.0" bus1="1012_131" connectableBus1="1012_131" voltageLevelId1="1012_130" bus2="BG01__11" connectableBus2="BG01__11" voltageLevelId2="BG01__15" p1="-600.0" q1="1.3531774282455444" p2="600.0" q2="58.34000015258789">
            <iidm:ratioTapChanger lowTapPosition="0" tapPosition="5" loadTapChangingCapabilities="false">
                <iidm:step r="0.0" x="0.0" g="0.0" b="0.0" rho="1.0526316165924072"/>
                <iidm:step r="0.0" x="0.0" g="0.0" b="0.0" rho="1.0416667461395264"/>
                <iidm:step r="0.0" x="0.0" g="0.0" b="0.0" rho="1.0309277772903442"/>
                <iidm:step r="0.0" x="0.0" g="0.0" b="0.0" rho="1.0204081535339355"/>
                <iidm:step r="0.0" x="0.0" g="0.0" b="0.0" rho="1.0101009607315063"/>
                <iidm:step r="0.0" x="0.0" g="0.0" b="0.0" rho="1.0"/>
                <iidm:step r="0.0" x="0.0" g="0.0" b="0.0" rho="0.9900990128517151"/>
                <iidm:step r="0.0" x="0.0" g="0.0" b="0.0" rho="0.9803921580314636"/>
                <iidm:step r="0.0" x="0.0" g="0.0" b="0.0" rho="0.9708738327026367"/>
                <iidm:step r="0.0" x="0.0" g="0.0" b="0.0" rho="0.9615384936332703"/>
                <iidm:step r="0.0" x="0.0" g="0.0" b="0.0" rho="0.9523810148239136"/>
            </iidm:ratioTapChanger>
            <iidm:currentLimits1 permanentLimit="30791.998046875"/>
            <iidm:currentLimits2 permanentLimit="30791.998046875"/>
        </iidm:twoWindingsTransformer>
        <iidm:twoWindingsTransformer id="Tr12-1012" r="0.0" x="0.06666676700115204" g="0.0" b="0.0" ratedU1="130.0" ratedU2="20.0" bus1="1012_131" connectableBus1="1012_131" voltageLevelId1="1012_130" bus2="B12___21" connectableBus2="B12___21" voltageLevelId2="B12___20" p1="300.00201416015625" q1="100.0528564453125" p2="-300.00201416015625" q2="-83.80120086669922">
            <iidm:ratioTapChanger lowTapPosition="0" tapPosition="25" targetDeadband="0.0" loadTapChangingCapabilities="true" regulating="true" targetV="20.0">
                <iidm:terminalRef id="Tr12-1012" side="TWO"/>
                <iidm:step r="0.0" x="0.0" g="0.0" b="0.0" rho="1.25"/>
                <iidm:step r="0.0" x="0.0" g="0.0" b="0.0" rho="1.2345678806304932"/>
                <iidm:step r="0.0" x="0.0" g="0.0" b="0.0" rho="1.2195122241973877"/>
                <iidm:step r="0.0" x="0.0" g="0.0" b="0.0" rho="1.2048193216323853"/>
                <iidm:step r="0.0" x="0.0" g="0.0" b="0.0" rho="1.1904761791229248"/>
                <iidm:step r="0.0" x="0.0" g="0.0" b="0.0" rho="1.1764705181121826"/>
                <iidm:step r="0.0" x="0.0" g="0.0" b="0.0" rho="1.1627906560897827"/>
                <iidm:step r="0.0" x="0.0" g="0.0" b="0.0" rho="1.1494252681732178"/>
                <iidm:step r="0.0" x="0.0" g="0.0" b="0.0" rho="1.1363636255264282"/>
                <iidm:step r="0.0" x="0.0" g="0.0" b="0.0" rho="1.1235954761505127"/>
                <iidm:step r="0.0" x="0.0" g="0.0" b="0.0" rho="1.1111111640930176"/>
                <iidm:step r="0.0" x="0.0" g="0.0" b="0.0" rho="1.0989010334014893"/>
                <iidm:step r="0.0" x="0.0" g="0.0" b="0.0" rho="1.08695650100708"/>
                <iidm:step r="0.0" x="0.0" g="0.0" b="0.0" rho="1.0752688646316528"/>
                <iidm:step r="0.0" x="0.0" g="0.0" b="0.0" rho="1.063829779624939"/>
                <iidm:step r="0.0" x="0.0" g="0.0" b="0.0" rho="1.0526316165924072"/>
                <iidm:step r="0.0" x="0.0" g="0.0" b="0.0" rho="1.0416667461395264"/>
                <iidm:step r="0.0" x="0.0" g="0.0" b="0.0" rho="1.0309277772903442"/>
                <iidm:step r="0.0" x="0.0" g="0.0" b="0.0" rho="1.0204081535339355"/>
                <iidm:step r="0.0" x="0.0" g="0.0" b="0.0" rho="1.0101009607315063"/>
                <iidm:step r="0.0" x="0.0" g="0.0" b="0.0" rho="1.0"/>
                <iidm:step r="0.0" x="0.0" g="0.0" b="0.0" rho="0.9900990128517151"/>
                <iidm:step r="0.0" x="0.0" g="0.0" b="0.0" rho="0.9803921580314636"/>
                <iidm:step r="0.0" x="0.0" g="0.0" b="0.0" rho="0.9708738327026367"/>
                <iidm:step r="0.0" x="0.0" g="0.0" b="0.0" rho="0.9615384936332703"/>
                <iidm:step r="0.0" x="0.0" g="0.0" b="0.0" rho="0.9523810148239136"/>
                <iidm:step r="0.0" x="0.0" g="0.0" b="0.0" rho="0.943396270275116"/>
                <iidm:step r="0.0" x="0.0" g="0.0" b="0.0" rho="0.9345793724060059"/>
                <iidm:step r="0.0" x="0.0" g="0.0" b="0.0" rho="0.9259259104728699"/>
                <iidm:step r="0.0" x="0.0" g="0.0" b="0.0" rho="0.9174311757087708"/>
                <iidm:step r="0.0" x="0.0" g="0.0" b="0.0" rho="0.9090908765792847"/>
                <iidm:step r="0.0" x="0.0" g="0.0" b="0.0" rho="0.9009009003639221"/>
                <iidm:step r="0.0" x="0.0" g="0.0" b="0.0" rho="0.8928571343421936"/>
            </iidm:ratioTapChanger>
            <iidm:currentLimits1 permanentLimit="17320.5"/>
            <iidm:currentLimits2 permanentLimit="17320.5"/>
        </iidm:twoWindingsTransformer>
        <iidm:twoWindingsTransformer id="Tr4012-g10" r="0.0" x="0.04218750074505806" g="0.0" b="0.0" ratedU1="400.0" ratedU2="15.0" bus1="4012_401" connectableBus1="4012_401" voltageLevelId1="4012_400" bus2="BG10__11" connectableBus2="BG10__11" voltageLevelId2="BG10__15" p1="-600.0" q1="-178.3881072998047" p2="600.0" q2="255.7010040283203">
            <iidm:ratioTapChanger lowTapPosition="0" tapPosition="10" loadTapChangingCapabilities="false">
                <iidm:step r="0.0" x="0.0" g="0.0" b="0.0" rho="1.0526316165924072"/>
                <iidm:step r="0.0" x="0.0" g="0.0" b="0.0" rho="1.0416667461395264"/>
                <iidm:step r="0.0" x="0.0" g="0.0" b="0.0" rho="1.0309277772903442"/>
                <iidm:step r="0.0" x="0.0" g="0.0" b="0.0" rho="1.0204081535339355"/>
                <iidm:step r="0.0" x="0.0" g="0.0" b="0.0" rho="1.0101009607315063"/>
                <iidm:step r="0.0" x="0.0" g="0.0" b="0.0" rho="1.0"/>
                <iidm:step r="0.0" x="0.0" g="0.0" b="0.0" rho="0.9900990128517151"/>
                <iidm:step r="0.0" x="0.0" g="0.0" b="0.0" rho="0.9803921580314636"/>
                <iidm:step r="0.0" x="0.0" g="0.0" b="0.0" rho="0.9708738327026367"/>
                <iidm:step r="0.0" x="0.0" g="0.0" b="0.0" rho="0.9615384936332703"/>
                <iidm:step r="0.0" x="0.0" g="0.0" b="0.0" rho="0.9523810148239136"/>
            </iidm:ratioTapChanger>
            <iidm:currentLimits1 permanentLimit="30792.0"/>
            <iidm:currentLimits2 permanentLimit="30792.0"/>
        </iidm:twoWindingsTransformer>
    </iidm:substation>
    <iidm:substation id="_3dd84004-1feb-4d62-bf15-4ae3dcc30bc4" country="FR" tso="RTE">
        <iidm:voltageLevel id="1013_130" nominalV="130.0" highVoltageLimit="136.5" topologyKind="BUS_BREAKER">
            <iidm:busBreakerTopology>
                <iidm:bus id="1013_131" v="137.12515258789062" angle="65.4872527054353"/>
            </iidm:busBreakerTopology>
        </iidm:voltageLevel>
        <iidm:voltageLevel id="B13___20" nominalV="20.0" highVoltageLimit="21.0" topologyKind="BUS_BREAKER">
            <iidm:busBreakerTopology>
                <iidm:bus id="B13___21" v="19.914411544799805" angle="62.64929544491666"/>
            </iidm:busBreakerTopology>
            <iidm:load id="13_1" loadType="UNDEFINED" p0="100.00299835205078" q0="34.40169906616211" bus="B13___21" connectableBus="B13___21" p="100.00299835205078" q="34.40169906616211"/>
        </iidm:voltageLevel>
        <iidm:voltageLevel id="BG02__15" nominalV="15.0" highVoltageLimit="15.750001907348633" topologyKind="BUS_BREAKER">
            <iidm:busBreakerTopology>
                <iidm:bus id="BG02__11" v="15.847428321838379" angle="69.34622079403329"/>
            </iidm:busBreakerTopology>
            <iidm:generator id="g02" energySource="HYDRO" minP="0.0" maxP="9999.0" voltageRegulatorOn="true" targetP="300.0" targetV="15.847498893737793" targetQ="17.233400344848633" bus="BG02__11" connectableBus="BG02__11" p="-300.0" q="-17.233400344848633">
                <iidm:property name="genreCvg" value="AUTRE"/>
                <iidm:reactiveCapabilityCurve>
                    <iidm:point p="0.0" minQ="-600.0" maxQ="600.0"/>
                    <iidm:point p="9999.0" minQ="-600.0" maxQ="600.0"/>
                </iidm:reactiveCapabilityCurve>
            </iidm:generator>
        </iidm:voltageLevel>
        <iidm:twoWindingsTransformer id="Tr1013-g2" r="0.0" x="0.056250009685754776" g="0.0" b="0.0" ratedU1="130.0" ratedU2="15.0" bus1="1013_131" connectableBus1="1013_131" voltageLevelId1="1013_130" bus2="BG02__11" connectableBus2="BG02__11" voltageLevelId2="BG02__15" p1="-300.0" q1="2.9911203384399414" p2="300.0" q2="17.233400344848633">
            <iidm:ratioTapChanger lowTapPosition="0" tapPosition="5" loadTapChangingCapabilities="false">
                <iidm:step r="0.0" x="0.0" g="0.0" b="0.0" rho="1.0526316165924072"/>
                <iidm:step r="0.0" x="0.0" g="0.0" b="0.0" rho="1.0416667461395264"/>
                <iidm:step r="0.0" x="0.0" g="0.0" b="0.0" rho="1.0309277772903442"/>
                <iidm:step r="0.0" x="0.0" g="0.0" b="0.0" rho="1.0204081535339355"/>
                <iidm:step r="0.0" x="0.0" g="0.0" b="0.0" rho="1.0101009607315063"/>
                <iidm:step r="0.0" x="0.0" g="0.0" b="0.0" rho="1.0"/>
                <iidm:step r="0.0" x="0.0" g="0.0" b="0.0" rho="0.9900990128517151"/>
                <iidm:step r="0.0" x="0.0" g="0.0" b="0.0" rho="0.9803921580314636"/>
                <iidm:step r="0.0" x="0.0" g="0.0" b="0.0" rho="0.9708738327026367"/>
                <iidm:step r="0.0" x="0.0" g="0.0" b="0.0" rho="0.9615384936332703"/>
                <iidm:step r="0.0" x="0.0" g="0.0" b="0.0" rho="0.9523810148239136"/>
            </iidm:ratioTapChanger>
            <iidm:currentLimits1 permanentLimit="23094.0"/>
            <iidm:currentLimits2 permanentLimit="23094.0"/>
        </iidm:twoWindingsTransformer>
        <iidm:twoWindingsTransformer id="Tr13-1013" r="0.0" x="0.20000006258487701" g="0.0" b="0.0" ratedU1="130.0" ratedU2="20.0" bus1="1013_131" connectableBus1="1013_131" voltageLevelId1="1013_130" bus2="B13___21" connectableBus2="B13___21" voltageLevelId2="B13___20" p1="100.00299835205078" q1="40.041908264160156" p2="-100.00299835205078" q2="-34.40169906616211">
            <iidm:ratioTapChanger lowTapPosition="0" tapPosition="24" targetDeadband="0.0" loadTapChangingCapabilities="true" regulating="true" targetV="20.0">
                <iidm:terminalRef id="Tr13-1013" side="TWO"/>
                <iidm:step r="0.0" x="0.0" g="0.0" b="0.0" rho="1.25"/>
                <iidm:step r="0.0" x="0.0" g="0.0" b="0.0" rho="1.2345678806304932"/>
                <iidm:step r="0.0" x="0.0" g="0.0" b="0.0" rho="1.2195122241973877"/>
                <iidm:step r="0.0" x="0.0" g="0.0" b="0.0" rho="1.2048193216323853"/>
                <iidm:step r="0.0" x="0.0" g="0.0" b="0.0" rho="1.1904761791229248"/>
                <iidm:step r="0.0" x="0.0" g="0.0" b="0.0" rho="1.1764705181121826"/>
                <iidm:step r="0.0" x="0.0" g="0.0" b="0.0" rho="1.1627906560897827"/>
                <iidm:step r="0.0" x="0.0" g="0.0" b="0.0" rho="1.1494252681732178"/>
                <iidm:step r="0.0" x="0.0" g="0.0" b="0.0" rho="1.1363636255264282"/>
                <iidm:step r="0.0" x="0.0" g="0.0" b="0.0" rho="1.1235954761505127"/>
                <iidm:step r="0.0" x="0.0" g="0.0" b="0.0" rho="1.1111111640930176"/>
                <iidm:step r="0.0" x="0.0" g="0.0" b="0.0" rho="1.0989010334014893"/>
                <iidm:step r="0.0" x="0.0" g="0.0" b="0.0" rho="1.08695650100708"/>
                <iidm:step r="0.0" x="0.0" g="0.0" b="0.0" rho="1.0752688646316528"/>
                <iidm:step r="0.0" x="0.0" g="0.0" b="0.0" rho="1.063829779624939"/>
                <iidm:step r="0.0" x="0.0" g="0.0" b="0.0" rho="1.0526316165924072"/>
                <iidm:step r="0.0" x="0.0" g="0.0" b="0.0" rho="1.0416667461395264"/>
                <iidm:step r="0.0" x="0.0" g="0.0" b="0.0" rho="1.0309277772903442"/>
                <iidm:step r="0.0" x="0.0" g="0.0" b="0.0" rho="1.0204081535339355"/>
                <iidm:step r="0.0" x="0.0" g="0.0" b="0.0" rho="1.0101009607315063"/>
                <iidm:step r="0.0" x="0.0" g="0.0" b="0.0" rho="1.0"/>
                <iidm:step r="0.0" x="0.0" g="0.0" b="0.0" rho="0.9900990128517151"/>
                <iidm:step r="0.0" x="0.0" g="0.0" b="0.0" rho="0.9803921580314636"/>
                <iidm:step r="0.0" x="0.0" g="0.0" b="0.0" rho="0.9708738327026367"/>
                <iidm:step r="0.0" x="0.0" g="0.0" b="0.0" rho="0.9615384936332703"/>
                <iidm:step r="0.0" x="0.0" g="0.0" b="0.0" rho="0.9523810148239136"/>
                <iidm:step r="0.0" x="0.0" g="0.0" b="0.0" rho="0.943396270275116"/>
                <iidm:step r="0.0" x="0.0" g="0.0" b="0.0" rho="0.9345793724060059"/>
                <iidm:step r="0.0" x="0.0" g="0.0" b="0.0" rho="0.9259259104728699"/>
                <iidm:step r="0.0" x="0.0" g="0.0" b="0.0" rho="0.9174311757087708"/>
                <iidm:step r="0.0" x="0.0" g="0.0" b="0.0" rho="0.9090908765792847"/>
                <iidm:step r="0.0" x="0.0" g="0.0" b="0.0" rho="0.9009009003639221"/>
                <iidm:step r="0.0" x="0.0" g="0.0" b="0.0" rho="0.8928571343421936"/>
            </iidm:ratioTapChanger>
            <iidm:currentLimits1 permanentLimit="5773.5"/>
            <iidm:currentLimits2 permanentLimit="5773.5"/>
        </iidm:twoWindingsTransformer>
    </iidm:substation>
    <iidm:substation id="_6b684b57-105e-4777-b95c-3f07617803dd" country="FR" tso="RTE">
        <iidm:voltageLevel id="1014_130" nominalV="130.0" highVoltageLimit="136.5" topologyKind="BUS_BREAKER">
            <iidm:busBreakerTopology>
                <iidm:bus id="1014_131" v="137.94468688964844" angle="68.48678492095975"/>
            </iidm:busBreakerTopology>
        </iidm:voltageLevel>
        <iidm:voltageLevel id="BG03__15" nominalV="15.0" highVoltageLimit="15.750001907348633" topologyKind="BUS_BREAKER">
            <iidm:busBreakerTopology>
                <iidm:bus id="BG03__11" v="15.892438888549805" angle="74.5042908627677"/>
            </iidm:busBreakerTopology>
            <iidm:generator id="g03" energySource="HYDRO" minP="0.0" maxP="9999.0" voltageRegulatorOn="true" targetP="550.0" targetV="15.892499923706055" targetQ="20.91320037841797" bus="BG03__11" connectableBus="BG03__11" p="-550.0" q="-20.91320037841797">
                <iidm:property name="genreCvg" value="AUTRE"/>
                <iidm:reactiveCapabilityCurve>
                    <iidm:point p="0.0" minQ="-700.0" maxQ="700.0"/>
                    <iidm:point p="9999.0" minQ="-700.0" maxQ="700.0"/>
                </iidm:reactiveCapabilityCurve>
            </iidm:generator>
        </iidm:voltageLevel>
        <iidm:twoWindingsTransformer id="Tr1014-g3" r="0.0" x="0.048214320093393326" g="0.0" b="0.0" ratedU1="130.0" ratedU2="15.0" bus1="1014_131" connectableBus1="1014_131" voltageLevelId1="1014_130" bus2="BG03__11" connectableBus2="BG03__11" voltageLevelId2="BG03__15" p1="-550.0" q1="36.91606903076172" p2="550.0" q2="20.91320037841797">
            <iidm:ratioTapChanger lowTapPosition="0" tapPosition="5" loadTapChangingCapabilities="false">
                <iidm:step r="0.0" x="0.0" g="0.0" b="0.0" rho="1.0526316165924072"/>
                <iidm:step r="0.0" x="0.0" g="0.0" b="0.0" rho="1.0416667461395264"/>
                <iidm:step r="0.0" x="0.0" g="0.0" b="0.0" rho="1.0309277772903442"/>
                <iidm:step r="0.0" x="0.0" g="0.0" b="0.0" rho="1.0204081535339355"/>
                <iidm:step r="0.0" x="0.0" g="0.0" b="0.0" rho="1.0101009607315063"/>
                <iidm:step r="0.0" x="0.0" g="0.0" b="0.0" rho="1.0"/>
                <iidm:step r="0.0" x="0.0" g="0.0" b="0.0" rho="0.9900990128517151"/>
                <iidm:step r="0.0" x="0.0" g="0.0" b="0.0" rho="0.9803921580314636"/>
                <iidm:step r="0.0" x="0.0" g="0.0" b="0.0" rho="0.9708738327026367"/>
                <iidm:step r="0.0" x="0.0" g="0.0" b="0.0" rho="0.9615384936332703"/>
                <iidm:step r="0.0" x="0.0" g="0.0" b="0.0" rho="0.9523810148239136"/>
            </iidm:ratioTapChanger>
            <iidm:currentLimits1 permanentLimit="26943.0"/>
            <iidm:currentLimits2 permanentLimit="26943.0"/>
        </iidm:twoWindingsTransformer>
    </iidm:substation>
    <iidm:substation id="_aa90c941-14e3-4c16-8ed4-513a0206d631" country="FR" tso="RTE">
        <iidm:voltageLevel id="1021_130" nominalV="130.0" highVoltageLimit="136.5" topologyKind="BUS_BREAKER">
            <iidm:busBreakerTopology>
                <iidm:bus id="1021_131" v="134.0380859375" angle="66.87475782399919"/>
            </iidm:busBreakerTopology>
        </iidm:voltageLevel>
        <iidm:voltageLevel id="BG04__15" nominalV="15.0" highVoltageLimit="15.750001907348633" topologyKind="BUS_BREAKER">
            <iidm:busBreakerTopology>
                <iidm:bus id="BG04__11" v="15.507905006408691" angle="72.25763673907541"/>
            </iidm:busBreakerTopology>
            <iidm:generator id="g04" energySource="HYDRO" minP="0.0" maxP="9999.0" voltageRegulatorOn="true" targetP="400.0" targetV="15.508500099182129" targetQ="30.375099182128906" bus="BG04__11" connectableBus="BG04__11" p="-400.0" q="-30.375099182128906">
                <iidm:property name="genreCvg" value="AUTRE"/>
                <iidm:reactiveCapabilityCurve>
                    <iidm:point p="0.0" minQ="-600.0" maxQ="600.0"/>
                    <iidm:point p="9999.0" minQ="-600.0" maxQ="600.0"/>
                </iidm:reactiveCapabilityCurve>
            </iidm:generator>
        </iidm:voltageLevel>
        <iidm:twoWindingsTransformer id="Tr1021-g4" r="0.0" x="0.056250009685754776" g="0.0" b="0.0" ratedU1="130.0" ratedU2="15.0" bus1="1021_131" connectableBus1="1021_131" voltageLevelId1="1021_130" bus2="BG04__11" connectableBus2="BG04__11" voltageLevelId2="BG04__15" p1="-400.0" q1="7.263504981994629" p2="400.0" q2="30.375099182128906">
            <iidm:ratioTapChanger lowTapPosition="0" tapPosition="5" loadTapChangingCapabilities="false">
                <iidm:step r="0.0" x="0.0" g="0.0" b="0.0" rho="1.0526316165924072"/>
                <iidm:step r="0.0" x="0.0" g="0.0" b="0.0" rho="1.0416667461395264"/>
                <iidm:step r="0.0" x="0.0" g="0.0" b="0.0" rho="1.0309277772903442"/>
                <iidm:step r="0.0" x="0.0" g="0.0" b="0.0" rho="1.0204081535339355"/>
                <iidm:step r="0.0" x="0.0" g="0.0" b="0.0" rho="1.0101009607315063"/>
                <iidm:step r="0.0" x="0.0" g="0.0" b="0.0" rho="1.0"/>
                <iidm:step r="0.0" x="0.0" g="0.0" b="0.0" rho="0.9900990128517151"/>
                <iidm:step r="0.0" x="0.0" g="0.0" b="0.0" rho="0.9803921580314636"/>
                <iidm:step r="0.0" x="0.0" g="0.0" b="0.0" rho="0.9708738327026367"/>
                <iidm:step r="0.0" x="0.0" g="0.0" b="0.0" rho="0.9615384936332703"/>
                <iidm:step r="0.0" x="0.0" g="0.0" b="0.0" rho="0.9523810148239136"/>
            </iidm:ratioTapChanger>
            <iidm:currentLimits1 permanentLimit="23094.0"/>
            <iidm:currentLimits2 permanentLimit="23094.0"/>
        </iidm:twoWindingsTransformer>
    </iidm:substation>
    <iidm:substation id="_324bf35a-84bb-4d14-b005-bbaaef147928" country="FR" tso="RTE">
        <iidm:voltageLevel id="1022_130" nominalV="130.0" highVoltageLimit="136.5" topologyKind="BUS_BREAKER">
            <iidm:busBreakerTopology>
                <iidm:bus id="1022_131" v="136.66015625" angle="45.183637718264045"/>
            </iidm:busBreakerTopology>
            <iidm:shunt id="1022-Cap" sectionCount="1" voltageRegulatorOn="false" bus="1022_131" connectableBus="1022_131" q="-55.254432678222656">
                <iidm:property name="qMax" value="50"/>
                <iidm:shuntLinearModel bPerSection="0.002958579920232296" maximumSectionCount="1"/>
            </iidm:shunt>
        </iidm:voltageLevel>
        <iidm:voltageLevel id="4022_400" nominalV="400.0" highVoltageLimit="420.0" topologyKind="BUS_BREAKER">
            <iidm:busBreakerTopology>
                <iidm:bus id="4022_401" v="397.874755859375" angle="43.36457392718206"/>
            </iidm:busBreakerTopology>
        </iidm:voltageLevel>
        <iidm:voltageLevel id="B22___20" nominalV="20.0" highVoltageLimit="21.0" topologyKind="BUS_BREAKER">
            <iidm:busBreakerTopology>
                <iidm:bus id="B22___21" v="19.904258728027344" angle="42.334526758830776"/>
            </iidm:busBreakerTopology>
            <iidm:load id="22_1" loadType="UNDEFINED" p0="280.0119934082031" q0="79.90679931640625" bus="B22___21" connectableBus="B22___21" p="280.0119934082031" q="79.90679931640625"/>
        </iidm:voltageLevel>
        <iidm:voltageLevel id="BG05__15" nominalV="15.0" highVoltageLimit="15.750001907348633" topologyKind="BUS_BREAKER">
            <iidm:busBreakerTopology>
                <iidm:bus id="BG05__11" v="15.440577507019043" angle="51.87029046286898"/>
            </iidm:busBreakerTopology>
            <iidm:generator id="g05" energySource="HYDRO" minP="0.0" maxP="9999.0" voltageRegulatorOn="true" targetP="200.0" targetV="15.440999984741211" targetQ="60.0614013671875" bus="BG05__11" connectableBus="BG05__11" p="-200.0" q="-60.0614013671875">
                <iidm:property name="genreCvg" value="AUTRE"/>
                <iidm:reactiveCapabilityCurve>
                    <iidm:point p="0.0" minQ="-250.0" maxQ="250.0"/>
                    <iidm:point p="9999.0" minQ="-250.0" maxQ="250.0"/>
                </iidm:reactiveCapabilityCurve>
            </iidm:generator>
        </iidm:voltageLevel>
        <iidm:twoWindingsTransformer id="Tr1022-4022" r="0.0" x="2.0280842781066895" g="0.0" b="0.0" ratedU1="400.0" ratedU2="130.0" bus1="4022_401" connectableBus1="4022_401" voltageLevelId1="4022_400" bus2="1022_131" connectableBus2="1022_131" voltageLevelId2="1022_130" p1="-297.40997314453125" q1="168.03424072265625" p2="297.40997314453125" q2="-155.7931671142578">
            <iidm:ratioTapChanger lowTapPosition="0" tapPosition="3" loadTapChangingCapabilities="false">
                <iidm:step r="0.0" x="0.0" g="0.0" b="0.0" rho="1.1111111640930176"/>
                <iidm:step r="0.0" x="0.0" g="0.0" b="0.0" rho="1.0989010334014893"/>
                <iidm:step r="0.0" x="0.0" g="0.0" b="0.0" rho="1.08695650100708"/>
                <iidm:step r="0.0" x="0.0" g="0.0" b="0.0" rho="1.0752688646316528"/>
                <iidm:step r="0.0" x="0.0" g="0.0" b="0.0" rho="1.063829779624939"/>
                <iidm:step r="0.0" x="0.0" g="0.0" b="0.0" rho="1.0526316165924072"/>
                <iidm:step r="0.0" x="0.0" g="0.0" b="0.0" rho="1.0416667461395264"/>
                <iidm:step r="0.0" x="0.0" g="0.0" b="0.0" rho="1.0309277772903442"/>
                <iidm:step r="0.0" x="0.0" g="0.0" b="0.0" rho="1.0204081535339355"/>
                <iidm:step r="0.0" x="0.0" g="0.0" b="0.0" rho="1.0101009607315063"/>
                <iidm:step r="0.0" x="0.0" g="0.0" b="0.0" rho="1.0"/>
                <iidm:step r="0.0" x="0.0" g="0.0" b="0.0" rho="0.9900990128517151"/>
                <iidm:step r="0.0" x="0.0" g="0.0" b="0.0" rho="0.9803921580314636"/>
                <iidm:step r="0.0" x="0.0" g="0.0" b="0.0" rho="0.9708738327026367"/>
                <iidm:step r="0.0" x="0.0" g="0.0" b="0.0" rho="0.9615384936332703"/>
                <iidm:step r="0.0" x="0.0" g="0.0" b="0.0" rho="0.9523810148239136"/>
                <iidm:step r="0.0" x="0.0" g="0.0" b="0.0" rho="0.943396270275116"/>
                <iidm:step r="0.0" x="0.0" g="0.0" b="0.0" rho="0.9345793724060059"/>
                <iidm:step r="0.0" x="0.0" g="0.0" b="0.0" rho="0.9259259104728699"/>
                <iidm:step r="0.0" x="0.0" g="0.0" b="0.0" rho="0.9174311757087708"/>
                <iidm:step r="0.0" x="0.0" g="0.0" b="0.0" rho="0.9090908765792847"/>
            </iidm:ratioTapChanger>
            <iidm:currentLimits1 permanentLimit="3700.820068359375"/>
            <iidm:currentLimits2 permanentLimit="3700.820068359375"/>
        </iidm:twoWindingsTransformer>
        <iidm:twoWindingsTransformer id="Tr1022-g5" r="0.0" x="0.13500003516674042" g="0.0" b="0.0" ratedU1="130.0" ratedU2="15.0" bus1="1022_131" connectableBus1="1022_131" voltageLevelId1="1022_130" bus2="BG05__11" connectableBus2="BG05__11" voltageLevelId2="BG05__15" p1="-200.0" q1="-35.36880874633789" p2="200.0" q2="60.0614013671875">
            <iidm:ratioTapChanger lowTapPosition="0" tapPosition="10" loadTapChangingCapabilities="false">
                <iidm:step r="0.0" x="0.0" g="0.0" b="0.0" rho="1.0526316165924072"/>
                <iidm:step r="0.0" x="0.0" g="0.0" b="0.0" rho="1.0416667461395264"/>
                <iidm:step r="0.0" x="0.0" g="0.0" b="0.0" rho="1.0309277772903442"/>
                <iidm:step r="0.0" x="0.0" g="0.0" b="0.0" rho="1.0204081535339355"/>
                <iidm:step r="0.0" x="0.0" g="0.0" b="0.0" rho="1.0101009607315063"/>
                <iidm:step r="0.0" x="0.0" g="0.0" b="0.0" rho="1.0"/>
                <iidm:step r="0.0" x="0.0" g="0.0" b="0.0" rho="0.9900990128517151"/>
                <iidm:step r="0.0" x="0.0" g="0.0" b="0.0" rho="0.9803921580314636"/>
                <iidm:step r="0.0" x="0.0" g="0.0" b="0.0" rho="0.9708738327026367"/>
                <iidm:step r="0.0" x="0.0" g="0.0" b="0.0" rho="0.9615384936332703"/>
                <iidm:step r="0.0" x="0.0" g="0.0" b="0.0" rho="0.9523810148239136"/>
            </iidm:ratioTapChanger>
            <iidm:currentLimits1 permanentLimit="9622.5"/>
            <iidm:currentLimits2 permanentLimit="9622.5"/>
        </iidm:twoWindingsTransformer>
        <iidm:twoWindingsTransformer id="Tr22-1022" r="0.0" x="0.07142866402864456" g="0.0" b="0.0" ratedU1="130.0" ratedU2="20.0" bus1="1022_131" connectableBus1="1022_131" voltageLevelId1="1022_130" bus2="B22___21" connectableBus2="B22___21" voltageLevelId2="B22___20" p1="280.0119934082031" q1="95.19422912597656" p2="-280.0119934082031" q2="-79.90679931640625">
            <iidm:ratioTapChanger lowTapPosition="0" tapPosition="24" targetDeadband="0.0" loadTapChangingCapabilities="true" regulating="true" targetV="20.0">
                <iidm:terminalRef id="Tr22-1022" side="TWO"/>
                <iidm:step r="0.0" x="0.0" g="0.0" b="0.0" rho="1.25"/>
                <iidm:step r="0.0" x="0.0" g="0.0" b="0.0" rho="1.2345678806304932"/>
                <iidm:step r="0.0" x="0.0" g="0.0" b="0.0" rho="1.2195122241973877"/>
                <iidm:step r="0.0" x="0.0" g="0.0" b="0.0" rho="1.2048193216323853"/>
                <iidm:step r="0.0" x="0.0" g="0.0" b="0.0" rho="1.1904761791229248"/>
                <iidm:step r="0.0" x="0.0" g="0.0" b="0.0" rho="1.1764705181121826"/>
                <iidm:step r="0.0" x="0.0" g="0.0" b="0.0" rho="1.1627906560897827"/>
                <iidm:step r="0.0" x="0.0" g="0.0" b="0.0" rho="1.1494252681732178"/>
                <iidm:step r="0.0" x="0.0" g="0.0" b="0.0" rho="1.1363636255264282"/>
                <iidm:step r="0.0" x="0.0" g="0.0" b="0.0" rho="1.1235954761505127"/>
                <iidm:step r="0.0" x="0.0" g="0.0" b="0.0" rho="1.1111111640930176"/>
                <iidm:step r="0.0" x="0.0" g="0.0" b="0.0" rho="1.0989010334014893"/>
                <iidm:step r="0.0" x="0.0" g="0.0" b="0.0" rho="1.08695650100708"/>
                <iidm:step r="0.0" x="0.0" g="0.0" b="0.0" rho="1.0752688646316528"/>
                <iidm:step r="0.0" x="0.0" g="0.0" b="0.0" rho="1.063829779624939"/>
                <iidm:step r="0.0" x="0.0" g="0.0" b="0.0" rho="1.0526316165924072"/>
                <iidm:step r="0.0" x="0.0" g="0.0" b="0.0" rho="1.0416667461395264"/>
                <iidm:step r="0.0" x="0.0" g="0.0" b="0.0" rho="1.0309277772903442"/>
                <iidm:step r="0.0" x="0.0" g="0.0" b="0.0" rho="1.0204081535339355"/>
                <iidm:step r="0.0" x="0.0" g="0.0" b="0.0" rho="1.0101009607315063"/>
                <iidm:step r="0.0" x="0.0" g="0.0" b="0.0" rho="1.0"/>
                <iidm:step r="0.0" x="0.0" g="0.0" b="0.0" rho="0.9900990128517151"/>
                <iidm:step r="0.0" x="0.0" g="0.0" b="0.0" rho="0.9803921580314636"/>
                <iidm:step r="0.0" x="0.0" g="0.0" b="0.0" rho="0.9708738327026367"/>
                <iidm:step r="0.0" x="0.0" g="0.0" b="0.0" rho="0.9615384936332703"/>
                <iidm:step r="0.0" x="0.0" g="0.0" b="0.0" rho="0.9523810148239136"/>
                <iidm:step r="0.0" x="0.0" g="0.0" b="0.0" rho="0.943396270275116"/>
                <iidm:step r="0.0" x="0.0" g="0.0" b="0.0" rho="0.9345793724060059"/>
                <iidm:step r="0.0" x="0.0" g="0.0" b="0.0" rho="0.9259259104728699"/>
                <iidm:step r="0.0" x="0.0" g="0.0" b="0.0" rho="0.9174311757087708"/>
                <iidm:step r="0.0" x="0.0" g="0.0" b="0.0" rho="0.9090908765792847"/>
                <iidm:step r="0.0" x="0.0" g="0.0" b="0.0" rho="0.9009009003639221"/>
                <iidm:step r="0.0" x="0.0" g="0.0" b="0.0" rho="0.8928571343421936"/>
            </iidm:ratioTapChanger>
            <iidm:currentLimits1 permanentLimit="16165.7998046875"/>
            <iidm:currentLimits2 permanentLimit="16165.7998046875"/>
        </iidm:twoWindingsTransformer>
    </iidm:substation>
    <iidm:substation id="_22d093c3-f6da-43b4-9b8d-c13a0e2906eb" country="FR" tso="RTE">
        <iidm:voltageLevel id="1041_130" nominalV="130.0" highVoltageLimit="136.5" topologyKind="BUS_BREAKER">
            <iidm:busBreakerTopology>
                <iidm:bus id="1041_131" v="131.61917114257812" angle="-17.641791229874315"/>
            </iidm:busBreakerTopology>
            <iidm:shunt id="1041-Cap" sectionCount="1" voltageRegulatorOn="false" bus="1041_131" connectableBus="1041_131" q="-256.266357421875">
                <iidm:property name="qMax" value="250"/>
                <iidm:shuntLinearModel bPerSection="0.014792900532484055" maximumSectionCount="1"/>
            </iidm:shunt>
        </iidm:voltageLevel>
        <iidm:voltageLevel id="B01___20" nominalV="20.0" highVoltageLimit="21.0" topologyKind="BUS_BREAKER">
            <iidm:busBreakerTopology>
                <iidm:bus id="B01___21" v="19.9770565032959" angle="-20.47573746180286"/>
            </iidm:busBreakerTopology>
            <iidm:load id="01_1" loadType="UNDEFINED" p0="600.0" q0="148.1999969482422" bus="B01___21" connectableBus="B01___21" p="600.0" q="148.1999969482422"/>
        </iidm:voltageLevel>
        <iidm:twoWindingsTransformer id="Tr1-1041" r="0.0" x="0.03333326056599617" g="0.0" b="0.0" ratedU1="130.0" ratedU2="20.0" bus1="1041_131" connectableBus1="1041_131" voltageLevelId1="1041_130" bus2="B01___21" connectableBus2="B01___21" voltageLevelId2="B01___20" p1="600.0" q1="180.1033477783203" p2="-600.0" q2="-148.1999969482422">
            <iidm:ratioTapChanger lowTapPosition="0" tapPosition="20" targetDeadband="0.0" loadTapChangingCapabilities="true" regulating="true" targetV="20.0">
                <iidm:terminalRef id="Tr1-1041" side="TWO"/>
                <iidm:step r="0.0" x="0.0" g="0.0" b="0.0" rho="1.25"/>
                <iidm:step r="0.0" x="0.0" g="0.0" b="0.0" rho="1.2345678806304932"/>
                <iidm:step r="0.0" x="0.0" g="0.0" b="0.0" rho="1.2195122241973877"/>
                <iidm:step r="0.0" x="0.0" g="0.0" b="0.0" rho="1.2048193216323853"/>
                <iidm:step r="0.0" x="0.0" g="0.0" b="0.0" rho="1.1904761791229248"/>
                <iidm:step r="0.0" x="0.0" g="0.0" b="0.0" rho="1.1764705181121826"/>
                <iidm:step r="0.0" x="0.0" g="0.0" b="0.0" rho="1.1627906560897827"/>
                <iidm:step r="0.0" x="0.0" g="0.0" b="0.0" rho="1.1494252681732178"/>
                <iidm:step r="0.0" x="0.0" g="0.0" b="0.0" rho="1.1363636255264282"/>
                <iidm:step r="0.0" x="0.0" g="0.0" b="0.0" rho="1.1235954761505127"/>
                <iidm:step r="0.0" x="0.0" g="0.0" b="0.0" rho="1.1111111640930176"/>
                <iidm:step r="0.0" x="0.0" g="0.0" b="0.0" rho="1.0989010334014893"/>
                <iidm:step r="0.0" x="0.0" g="0.0" b="0.0" rho="1.08695650100708"/>
                <iidm:step r="0.0" x="0.0" g="0.0" b="0.0" rho="1.0752688646316528"/>
                <iidm:step r="0.0" x="0.0" g="0.0" b="0.0" rho="1.063829779624939"/>
                <iidm:step r="0.0" x="0.0" g="0.0" b="0.0" rho="1.0526316165924072"/>
                <iidm:step r="0.0" x="0.0" g="0.0" b="0.0" rho="1.0416667461395264"/>
                <iidm:step r="0.0" x="0.0" g="0.0" b="0.0" rho="1.0309277772903442"/>
                <iidm:step r="0.0" x="0.0" g="0.0" b="0.0" rho="1.0204081535339355"/>
                <iidm:step r="0.0" x="0.0" g="0.0" b="0.0" rho="1.0101009607315063"/>
                <iidm:step r="0.0" x="0.0" g="0.0" b="0.0" rho="1.0"/>
                <iidm:step r="0.0" x="0.0" g="0.0" b="0.0" rho="0.9900990128517151"/>
                <iidm:step r="0.0" x="0.0" g="0.0" b="0.0" rho="0.9803921580314636"/>
                <iidm:step r="0.0" x="0.0" g="0.0" b="0.0" rho="0.9708738327026367"/>
                <iidm:step r="0.0" x="0.0" g="0.0" b="0.0" rho="0.9615384936332703"/>
                <iidm:step r="0.0" x="0.0" g="0.0" b="0.0" rho="0.9523810148239136"/>
                <iidm:step r="0.0" x="0.0" g="0.0" b="0.0" rho="0.943396270275116"/>
                <iidm:step r="0.0" x="0.0" g="0.0" b="0.0" rho="0.9345793724060059"/>
                <iidm:step r="0.0" x="0.0" g="0.0" b="0.0" rho="0.9259259104728699"/>
                <iidm:step r="0.0" x="0.0" g="0.0" b="0.0" rho="0.9174311757087708"/>
                <iidm:step r="0.0" x="0.0" g="0.0" b="0.0" rho="0.9090908765792847"/>
                <iidm:step r="0.0" x="0.0" g="0.0" b="0.0" rho="0.9009009003639221"/>
                <iidm:step r="0.0" x="0.0" g="0.0" b="0.0" rho="0.8928571343421936"/>
            </iidm:ratioTapChanger>
            <iidm:currentLimits1 permanentLimit="34641.0"/>
            <iidm:currentLimits2 permanentLimit="34641.0"/>
        </iidm:twoWindingsTransformer>
    </iidm:substation>
    <iidm:substation id="_1a6fe4b6-a0fc-47fa-8946-62398ab9ae75" country="FR" tso="RTE">
        <iidm:voltageLevel id="1042_130" nominalV="130.0" highVoltageLimit="136.5" topologyKind="BUS_BREAKER">
            <iidm:busBreakerTopology>
                <iidm:bus id="1042_131" v="131.8934783935547" angle="-3.1568910228216795"/>
            </iidm:busBreakerTopology>
        </iidm:voltageLevel>
        <iidm:voltageLevel id="B02___20" nominalV="20.0" highVoltageLimit="21.0" topologyKind="BUS_BREAKER">
            <iidm:busBreakerTopology>
                <iidm:bus id="B02___21" v="20.025129318237305" angle="-6.260787461646876"/>
            </iidm:busBreakerTopology>
            <iidm:load id="02_1" loadType="UNDEFINED" p0="330.0260009765625" q0="71.01129913330078" bus="B02___21" connectableBus="B02___21" p="330.0260009765625" q="71.01129913330078"/>
        </iidm:voltageLevel>
        <iidm:voltageLevel id="BG06__15" nominalV="15.0" highVoltageLimit="15.750001907348633" topologyKind="BUS_BREAKER">
            <iidm:busBreakerTopology>
                <iidm:bus id="BG06__11" v="15.127096176147461" angle="4.806546699136897"/>
            </iidm:busBreakerTopology>
            <iidm:generator id="g06" energySource="THERMAL" minP="0.0" maxP="9999.0" voltageRegulatorOn="true" targetP="360.0" targetV="15.126001358032227" targetQ="138.60000610351562" connectableBus="BG06__11" p="-360.0" q="-138.60000610351562">
                <iidm:property name="genreCvg" value="AUTRE"/>
                <iidm:reactiveCapabilityCurve>
                    <iidm:point p="0.0" minQ="-400.0" maxQ="400.0"/>
                    <iidm:point p="9999.0" minQ="-400.0" maxQ="400.0"/>
                </iidm:reactiveCapabilityCurve>
            </iidm:generator>
            <iidm:load id="g06_injection" loadType="UNDEFINED" p0="-360.0" q0="-138.60000610351562" bus="BG06__11" connectableBus="BG06__11" p="-360.0" q="-138"/>
        </iidm:voltageLevel>
        <iidm:twoWindingsTransformer id="Tr1042-g6" r="0.0" x="0.08437501639127731" g="0.0" b="0.0" ratedU1="130.0" ratedU2="15.0" bus1="1042_131" connectableBus1="1042_131" voltageLevelId1="1042_130" bus2="BG06__11" connectableBus2="BG06__11" voltageLevelId2="BG06__15" p1="-360.0" q1="-83.73004150390625" p2="360.0" q2="138.60000610351562">
            <iidm:ratioTapChanger lowTapPosition="0" tapPosition="10" loadTapChangingCapabilities="false">
                <iidm:step r="0.0" x="0.0" g="0.0" b="0.0" rho="1.0526316165924072"/>
                <iidm:step r="0.0" x="0.0" g="0.0" b="0.0" rho="1.0416667461395264"/>
                <iidm:step r="0.0" x="0.0" g="0.0" b="0.0" rho="1.0309277772903442"/>
                <iidm:step r="0.0" x="0.0" g="0.0" b="0.0" rho="1.0204081535339355"/>
                <iidm:step r="0.0" x="0.0" g="0.0" b="0.0" rho="1.0101009607315063"/>
                <iidm:step r="0.0" x="0.0" g="0.0" b="0.0" rho="1.0"/>
                <iidm:step r="0.0" x="0.0" g="0.0" b="0.0" rho="0.9900990128517151"/>
                <iidm:step r="0.0" x="0.0" g="0.0" b="0.0" rho="0.9803921580314636"/>
                <iidm:step r="0.0" x="0.0" g="0.0" b="0.0" rho="0.9708738327026367"/>
                <iidm:step r="0.0" x="0.0" g="0.0" b="0.0" rho="0.9615384936332703"/>
                <iidm:step r="0.0" x="0.0" g="0.0" b="0.0" rho="0.9523810148239136"/>
            </iidm:ratioTapChanger>
            <iidm:currentLimits1 permanentLimit="15395.9990234375"/>
            <iidm:currentLimits2 permanentLimit="15395.9990234375"/>
        </iidm:twoWindingsTransformer>
        <iidm:twoWindingsTransformer id="Tr2-1042" r="0.0" x="0.06666676700115204" g="0.0" b="0.0" ratedU1="130.0" ratedU2="20.0" bus1="1042_131" connectableBus1="1042_131" voltageLevelId1="1042_130" bus2="B02___21" connectableBus2="B02___21" voltageLevelId2="B02___20" p1="330.0260009765625" q1="89.95697784423828" p2="-330.0260009765625" q2="-71.01129913330078">
            <iidm:ratioTapChanger lowTapPosition="0" tapPosition="20" targetDeadband="0.0" loadTapChangingCapabilities="true" regulating="true" targetV="20.0">
                <iidm:terminalRef id="Tr2-1042" side="TWO"/>
                <iidm:step r="0.0" x="0.0" g="0.0" b="0.0" rho="1.25"/>
                <iidm:step r="0.0" x="0.0" g="0.0" b="0.0" rho="1.2345678806304932"/>
                <iidm:step r="0.0" x="0.0" g="0.0" b="0.0" rho="1.2195122241973877"/>
                <iidm:step r="0.0" x="0.0" g="0.0" b="0.0" rho="1.2048193216323853"/>
                <iidm:step r="0.0" x="0.0" g="0.0" b="0.0" rho="1.1904761791229248"/>
                <iidm:step r="0.0" x="0.0" g="0.0" b="0.0" rho="1.1764705181121826"/>
                <iidm:step r="0.0" x="0.0" g="0.0" b="0.0" rho="1.1627906560897827"/>
                <iidm:step r="0.0" x="0.0" g="0.0" b="0.0" rho="1.1494252681732178"/>
                <iidm:step r="0.0" x="0.0" g="0.0" b="0.0" rho="1.1363636255264282"/>
                <iidm:step r="0.0" x="0.0" g="0.0" b="0.0" rho="1.1235954761505127"/>
                <iidm:step r="0.0" x="0.0" g="0.0" b="0.0" rho="1.1111111640930176"/>
                <iidm:step r="0.0" x="0.0" g="0.0" b="0.0" rho="1.0989010334014893"/>
                <iidm:step r="0.0" x="0.0" g="0.0" b="0.0" rho="1.08695650100708"/>
                <iidm:step r="0.0" x="0.0" g="0.0" b="0.0" rho="1.0752688646316528"/>
                <iidm:step r="0.0" x="0.0" g="0.0" b="0.0" rho="1.063829779624939"/>
                <iidm:step r="0.0" x="0.0" g="0.0" b="0.0" rho="1.0526316165924072"/>
                <iidm:step r="0.0" x="0.0" g="0.0" b="0.0" rho="1.0416667461395264"/>
                <iidm:step r="0.0" x="0.0" g="0.0" b="0.0" rho="1.0309277772903442"/>
                <iidm:step r="0.0" x="0.0" g="0.0" b="0.0" rho="1.0204081535339355"/>
                <iidm:step r="0.0" x="0.0" g="0.0" b="0.0" rho="1.0101009607315063"/>
                <iidm:step r="0.0" x="0.0" g="0.0" b="0.0" rho="1.0"/>
                <iidm:step r="0.0" x="0.0" g="0.0" b="0.0" rho="0.9900990128517151"/>
                <iidm:step r="0.0" x="0.0" g="0.0" b="0.0" rho="0.9803921580314636"/>
                <iidm:step r="0.0" x="0.0" g="0.0" b="0.0" rho="0.9708738327026367"/>
                <iidm:step r="0.0" x="0.0" g="0.0" b="0.0" rho="0.9615384936332703"/>
                <iidm:step r="0.0" x="0.0" g="0.0" b="0.0" rho="0.9523810148239136"/>
                <iidm:step r="0.0" x="0.0" g="0.0" b="0.0" rho="0.943396270275116"/>
                <iidm:step r="0.0" x="0.0" g="0.0" b="0.0" rho="0.9345793724060059"/>
                <iidm:step r="0.0" x="0.0" g="0.0" b="0.0" rho="0.9259259104728699"/>
                <iidm:step r="0.0" x="0.0" g="0.0" b="0.0" rho="0.9174311757087708"/>
                <iidm:step r="0.0" x="0.0" g="0.0" b="0.0" rho="0.9090908765792847"/>
                <iidm:step r="0.0" x="0.0" g="0.0" b="0.0" rho="0.9009009003639221"/>
                <iidm:step r="0.0" x="0.0" g="0.0" b="0.0" rho="0.8928571343421936"/>
            </iidm:ratioTapChanger>
            <iidm:currentLimits1 permanentLimit="17320.5"/>
            <iidm:currentLimits2 permanentLimit="17320.5"/>
        </iidm:twoWindingsTransformer>
    </iidm:substation>
    <iidm:substation id="_24b8bbc5-1f71-4d9f-a22f-2c1a9dc6b44b" country="FR" tso="RTE">
        <iidm:voltageLevel id="1043_130" nominalV="130.0" highVoltageLimit="136.5" topologyKind="BUS_BREAKER">
            <iidm:busBreakerTopology>
                <iidm:bus id="1043_131" v="133.5725860595703" angle="-12.542857792747512"/>
            </iidm:busBreakerTopology>
            <iidm:shunt id="1043-Cap" sectionCount="1" voltageRegulatorOn="false" bus="1043_131" connectableBus="1043_131" q="-211.14329528808594">
                <iidm:property name="qMax" value="200"/>
                <iidm:shuntLinearModel bPerSection="0.011834300123155117" maximumSectionCount="1"/>
            </iidm:shunt>
        </iidm:voltageLevel>
        <iidm:voltageLevel id="B03___20" nominalV="20.0" highVoltageLimit="21.0" topologyKind="BUS_BREAKER">
            <iidm:busBreakerTopology>
                <iidm:bus id="B03___21" v="19.949119567871094" angle="-15.735985743880459"/>
            </iidm:busBreakerTopology>
            <iidm:load id="03_1" loadType="UNDEFINED" p0="260.0" q0="83.84239959716797" bus="B03___21" connectableBus="B03___21" p="260.0" q="83.84239959716797"/>
        </iidm:voltageLevel>
        <iidm:voltageLevel id="BG07__15" nominalV="15.0" highVoltageLimit="15.750001907348633" topologyKind="BUS_BREAKER">
            <iidm:busBreakerTopology>
                <iidm:bus id="BG07__11" v="15.211889266967773" angle="-4.724267252187161"/>
            </iidm:busBreakerTopology>
            <iidm:generator id="g07" energySource="THERMAL" minP="0.0" maxP="9999.0" voltageRegulatorOn="true" targetP="180.0" targetV="15.211499214172363" targetQ="60.400001525878906" bus="BG07__11" connectableBus="BG07__11" p="-180.0" q="-60.400001525878906">
                <iidm:property name="genreCvg" value="AUTRE"/>
                <iidm:reactiveCapabilityCurve>
                    <iidm:point p="0.0" minQ="-200.0" maxQ="200.0"/>
                    <iidm:point p="9999.0" minQ="-200.0" maxQ="200.0"/>
                </iidm:reactiveCapabilityCurve>
            </iidm:generator>
        </iidm:voltageLevel>
        <iidm:twoWindingsTransformer id="Tr1043-g7" r="0.0" x="0.16875003278255463" g="0.0" b="0.0" ratedU1="130.0" ratedU2="15.0" bus1="1043_131" connectableBus1="1043_131" voltageLevelId1="1043_130" bus2="BG07__11" connectableBus2="BG07__11" voltageLevelId2="BG07__15" p1="-180.0" q1="-34.11181640625" p2="180.0" q2="60.400001525878906">
            <iidm:ratioTapChanger lowTapPosition="0" tapPosition="10" loadTapChangingCapabilities="false">
                <iidm:step r="0.0" x="0.0" g="0.0" b="0.0" rho="1.0526316165924072"/>
                <iidm:step r="0.0" x="0.0" g="0.0" b="0.0" rho="1.0416667461395264"/>
                <iidm:step r="0.0" x="0.0" g="0.0" b="0.0" rho="1.0309277772903442"/>
                <iidm:step r="0.0" x="0.0" g="0.0" b="0.0" rho="1.0204081535339355"/>
                <iidm:step r="0.0" x="0.0" g="0.0" b="0.0" rho="1.0101009607315063"/>
                <iidm:step r="0.0" x="0.0" g="0.0" b="0.0" rho="1.0"/>
                <iidm:step r="0.0" x="0.0" g="0.0" b="0.0" rho="0.9900990128517151"/>
                <iidm:step r="0.0" x="0.0" g="0.0" b="0.0" rho="0.9803921580314636"/>
                <iidm:step r="0.0" x="0.0" g="0.0" b="0.0" rho="0.9708738327026367"/>
                <iidm:step r="0.0" x="0.0" g="0.0" b="0.0" rho="0.9615384936332703"/>
                <iidm:step r="0.0" x="0.0" g="0.0" b="0.0" rho="0.9523810148239136"/>
            </iidm:ratioTapChanger>
            <iidm:currentLimits1 permanentLimit="7697.99951171875"/>
            <iidm:currentLimits2 permanentLimit="7697.99951171875"/>
        </iidm:twoWindingsTransformer>
...